Version 4
SHEET 1 1768 968
WIRE 416 -320 -208 -320
WIRE 656 -320 640 -320
WIRE 640 -304 640 -320
WIRE 1456 -304 880 -304
WIRE 416 -288 208 -288
WIRE 640 -288 640 -304
WIRE 656 -288 640 -288
WIRE 1456 -128 1456 -304
WIRE 960 -112 592 -112
WIRE 1232 -112 1184 -112
WIRE 1184 -96 1184 -112
WIRE 1184 -80 1184 -96
WIRE 1232 -80 1184 -80
WIRE -208 96 -208 -320
WIRE 208 96 208 -288
WIRE 592 96 592 -112
WIRE 960 96 960 -80
WIRE -432 144 -528 144
WIRE -16 144 -208 144
WIRE 368 144 208 144
WIRE 736 144 592 144
WIRE 1184 144 960 144
WIRE 960 464 960 192
WIRE 1232 464 1184 464
WIRE 1184 480 1184 464
WIRE 592 496 592 192
WIRE 960 496 592 496
WIRE 1184 496 1184 480
WIRE 1232 496 1184 496
WIRE 1456 512 1440 512
WIRE 208 688 208 192
WIRE 416 688 208 688
WIRE 656 688 640 688
WIRE 640 704 640 688
WIRE 1440 704 1440 512
WIRE 1440 704 880 704
WIRE -208 720 -208 192
WIRE 416 720 -208 720
WIRE 640 720 640 704
WIRE 656 720 640 720
FLAG -432 96 a0
IOPIN -432 96 In
FLAG -16 96 a1
IOPIN -16 96 In
FLAG 368 96 a2
IOPIN 368 96 In
FLAG 736 96 a3
IOPIN 736 96 In
FLAG -432 192 b0
IOPIN -432 192 In
FLAG -16 192 b1
IOPIN -16 192 In
FLAG 368 192 b2
IOPIN 368 192 In
FLAG 736 192 b3
IOPIN 736 192 In
FLAG -608 144 0
FLAG 1680 -112 bg
IOPIN 1680 -112 Out
FLAG 1184 144 e
IOPIN 1184 144 Out
FLAG 1680 496 ag
IOPIN 1680 496 Out
SYMBOL one_comp 96 128 R0
SYMATTR InstName X1
SYMBOL one_comp 480 128 R0
SYMATTR InstName X2
SYMBOL one_comp 848 128 R0
SYMATTR InstName X3
SYMBOL one_comp -320 128 R0
SYMATTR InstName X4
SYMBOL voltage -512 144 R90
WINDOW 0 -32 56 VBottom 2
WINDOW 3 32 56 VTop 2
WINDOW 123 0 0 Left 0
WINDOW 39 0 0 Left 0
SYMATTR InstName V1
SYMATTR Value 1
SYMBOL nand 496 -320 R0
SYMATTR InstName X5
SYMBOL nand 736 -320 R0
SYMATTR InstName X6
SYMBOL nand 1536 -128 R0
SYMATTR InstName X7
SYMBOL nand 1312 -112 R0
SYMATTR InstName X8
SYMBOL nand 1040 -112 R0
SYMATTR InstName X9
SYMBOL nand 496 688 R0
SYMATTR InstName X10
SYMBOL nand 736 688 R0
SYMATTR InstName X11
SYMBOL nand 1536 480 R0
SYMATTR InstName X12
SYMBOL nand 1312 464 R0
SYMATTR InstName X13
SYMBOL nand 1040 464 R0
SYMATTR InstName X14
TEXT -552 -312 Left 2 !.include 90nm_bulk.txt
