Version 4
SHEET 1 1072 704
WIRE 336 -176 -64 -176
WIRE 240 -64 -64 -64
WIRE 336 32 336 -176
WIRE 208 48 -64 48
WIRE 240 80 240 -64
WIRE 336 80 240 80
WIRE 912 96 800 96
WIRE 992 96 912 96
WIRE 208 128 208 48
WIRE 336 128 208 128
WIRE 224 160 -64 160
WIRE 224 176 224 160
WIRE 336 176 224 176
WIRE 912 240 800 240
WIRE 992 240 912 240
WIRE 336 272 -64 272
WIRE 336 288 336 272
WIRE 336 336 192 336
WIRE 912 368 800 368
WIRE 992 368 912 368
WIRE 192 384 192 336
WIRE 192 384 -64 384
WIRE 336 384 240 384
WIRE 240 496 240 384
WIRE 240 496 -64 496
WIRE 336 608 336 432
WIRE 336 608 -64 608
FLAG 912 176 0
FLAG 992 160 0
FLAG 912 448 0
FLAG 992 432 0
FLAG 912 320 0
FLAG 992 304 0
FLAG -144 -176 0
FLAG -144 -64 0
FLAG -144 48 0
FLAG -144 160 0
FLAG -144 272 0
FLAG -144 384 0
FLAG -144 496 0
FLAG -144 608 0
SYMBOL comparator 592 112 R0
SYMATTR InstName X1
SYMBOL voltage -48 -176 R90
WINDOW 0 -32 56 VBottom 2
WINDOW 3 32 56 VTop 2
WINDOW 123 0 0 Left 0
WINDOW 39 0 0 Left 0
SYMATTR InstName V1
SYMATTR Value PULSE(0 1 1n 10p 10p 2n 4n)
SYMBOL cap 976 96 R0
SYMATTR InstName C1
SYMATTR Value 100f
SYMBOL res 896 80 R0
SYMATTR InstName R1
SYMATTR Value 100k
SYMBOL cap 976 368 R0
SYMATTR InstName C2
SYMATTR Value 100f
SYMBOL res 896 352 R0
SYMATTR InstName R2
SYMATTR Value 100k
SYMBOL cap 976 240 R0
SYMATTR InstName C3
SYMATTR Value 100f
SYMBOL res 896 224 R0
SYMATTR InstName R3
SYMATTR Value 100k
SYMBOL voltage -48 -64 R90
WINDOW 0 -32 56 VBottom 2
WINDOW 3 32 56 VTop 2
WINDOW 123 0 0 Left 0
WINDOW 39 0 0 Left 0
SYMATTR InstName V2
SYMATTR Value PULSE(0 1 1n 10p 10p 4n 8n)
SYMBOL voltage -48 48 R90
WINDOW 0 -32 56 VBottom 2
WINDOW 3 32 56 VTop 2
WINDOW 123 0 0 Left 0
WINDOW 39 0 0 Left 0
SYMATTR InstName V3
SYMATTR Value PULSE(0 1 1n 10p 10p 8n 16n)
SYMBOL voltage -48 160 R90
WINDOW 0 -32 56 VBottom 2
WINDOW 3 32 56 VTop 2
WINDOW 123 0 0 Left 0
WINDOW 39 0 0 Left 0
SYMATTR InstName V4
SYMATTR Value PULSE(0 1 1n 10p 10p 16n 32n)
SYMBOL voltage -48 272 R90
WINDOW 0 -32 56 VBottom 2
WINDOW 3 32 56 VTop 2
WINDOW 123 0 0 Left 0
WINDOW 39 0 0 Left 0
SYMATTR InstName V5
SYMATTR Value PULSE(0 1 1n 10p 10p 32n 64n)
SYMBOL voltage -48 384 R90
WINDOW 0 -32 56 VBottom 2
WINDOW 3 32 56 VTop 2
WINDOW 123 0 0 Left 0
WINDOW 39 0 0 Left 0
SYMATTR InstName V6
SYMATTR Value PULSE(0 1 1n 10p 10p 64n 128n)
SYMBOL voltage -48 496 R90
WINDOW 0 -32 56 VBottom 2
WINDOW 3 32 56 VTop 2
WINDOW 123 0 0 Left 0
WINDOW 39 0 0 Left 0
SYMATTR InstName V7
SYMATTR Value PULSE(0 1 1n 10p 10p 128n 256n)
SYMBOL voltage -48 608 R90
WINDOW 0 -32 56 VBottom 2
WINDOW 3 32 56 VTop 2
WINDOW 123 0 0 Left 0
WINDOW 39 0 0 Left 0
SYMATTR InstName V8
SYMATTR Value PULSE(0 1 1n 10p 10p 258n 512n)
TEXT 504 -184 Left 2 !.include 90nm_bulk.txt
TEXT 512 -128 Left 2 !.tran 0 512n 0 1p
