Version 4
SHEET 1 1380 680
WIRE -80 -80 -96 -80
WIRE 176 -64 144 -64
WIRE 240 -64 176 -64
WIRE -96 -48 -96 -80
WIRE -80 -48 -96 -48
WIRE 480 -48 480 -64
WIRE 480 -48 464 -48
WIRE 480 -32 480 -48
WIRE -96 16 -96 -48
WIRE -96 16 -144 16
WIRE 528 16 -96 16
WIRE 704 16 704 -48
WIRE 176 48 176 -64
WIRE 176 48 48 48
WIRE 48 96 48 48
WIRE 288 112 288 96
WIRE 288 112 272 112
WIRE 752 112 512 112
WIRE 48 128 16 128
WIRE 288 128 288 112
WIRE 752 144 752 112
WIRE 976 192 976 160
WIRE 240 208 240 -32
WIRE 240 208 -192 208
WIRE 752 208 752 176
WIRE 752 208 240 208
WIRE 752 256 752 208
WIRE 976 272 976 224
WIRE -96 304 -96 16
WIRE 48 304 -96 304
WIRE 288 320 288 304
WIRE 288 320 272 320
WIRE 752 320 752 288
WIRE 752 320 512 320
WIRE 48 336 -112 336
WIRE 288 336 288 320
WIRE 528 400 528 16
WIRE 736 400 528 400
WIRE -112 416 -112 336
WIRE -112 416 -144 416
WIRE 704 416 704 48
WIRE 704 416 -112 416
WIRE 16 464 16 128
WIRE 176 464 16 464
WIRE 240 496 240 208
WIRE 272 496 240 496
WIRE -112 512 -112 416
WIRE -80 512 -112 512
WIRE 512 512 512 496
WIRE 512 512 496 512
WIRE 736 512 736 432
WIRE 176 528 176 464
WIRE 176 528 144 528
WIRE 272 528 176 528
WIRE 512 528 512 512
WIRE -112 544 -112 512
WIRE -80 544 -112 544
FLAG -144 16 a
IOPIN -144 16 In
FLAG -192 208 pe
IOPIN -192 208 In
FLAG -144 416 b
IOPIN -144 416 In
FLAG 928 32 notl
IOPIN 928 32 Out
FLAG 1200 208 e
IOPIN 1200 208 Out
FLAG 960 416 notg
IOPIN 960 416 Out
SYMBOL nand 0 -80 R0
SYMATTR InstName X1
SYMBOL nand 0 512 R0
SYMATTR InstName X2
SYMBOL nand 320 -64 R0
SYMATTR InstName X3
SYMBOL nand 560 -64 R0
SYMATTR InstName X4
SYMBOL nand 352 496 R0
SYMATTR InstName X5
SYMBOL nand 592 496 R0
SYMATTR InstName X6
SYMBOL nand 784 16 R0
SYMATTR InstName X7
SYMBOL nand 816 400 R0
SYMATTR InstName X8
SYMBOL nand 128 96 R0
SYMATTR InstName X9
SYMBOL nand 368 96 R0
SYMATTR InstName X10
SYMBOL nand 128 304 R0
SYMATTR InstName X11
SYMBOL nand 368 304 R0
SYMATTR InstName X12
SYMBOL nand 832 144 R0
SYMATTR InstName X13
SYMBOL nand 832 256 R0
SYMATTR InstName X14
SYMBOL nand 1056 192 R0
SYMATTR InstName X15
