Version 4
SHEET 1 880 680
WIRE 464 0 336 0
WIRE 528 0 464 0
WIRE 112 48 -48 48
WIRE 112 128 112 48
WIRE 336 128 336 0
WIRE 112 176 32 176
WIRE 512 176 336 176
WIRE 576 176 512 176
WIRE 112 304 112 224
WIRE 112 304 -48 304
WIRE 336 320 336 224
WIRE 464 320 336 320
WIRE 528 320 464 320
FLAG 464 80 0
FLAG 528 64 0
FLAG 512 256 0
FLAG 576 240 0
FLAG 464 400 0
FLAG 528 384 0
FLAG -128 48 0
FLAG -48 176 0
FLAG -128 304 0
SYMBOL one_comp 224 160 R0
SYMATTR InstName X1
SYMBOL res 448 -16 R0
SYMATTR InstName R1
SYMATTR Value 100k
SYMBOL cap 512 0 R0
SYMATTR InstName C1
SYMATTR Value 100f
SYMBOL res 496 160 R0
SYMATTR InstName R2
SYMATTR Value 100k
SYMBOL cap 560 176 R0
SYMATTR InstName C2
SYMATTR Value 100f
SYMBOL res 448 304 R0
SYMATTR InstName R3
SYMATTR Value 100k
SYMBOL cap 512 320 R0
SYMATTR InstName C3
SYMATTR Value 100f
SYMBOL voltage -32 48 R90
WINDOW 0 -32 56 VBottom 2
WINDOW 3 32 56 VTop 2
WINDOW 123 0 0 Left 0
WINDOW 39 0 0 Left 0
SYMATTR InstName V1
SYMATTR Value PULSE(0 1 1n 10p 10p 2n 4n)
SYMBOL voltage 48 176 R90
WINDOW 0 -32 56 VBottom 2
WINDOW 3 32 56 VTop 2
WINDOW 123 0 0 Left 0
WINDOW 39 0 0 Left 0
SYMATTR InstName V2
SYMATTR Value 1
SYMBOL voltage -32 304 R90
WINDOW 0 -32 56 VBottom 2
WINDOW 3 32 56 VTop 2
WINDOW 123 0 0 Left 0
WINDOW 39 0 0 Left 0
SYMATTR InstName V3
SYMATTR Value PULSE(0 1 1n 10p 10p 4n 8n)
TEXT -136 -64 Left 2 !.tran 0 8n 0 1p
TEXT -128 -104 Left 2 !.include 90nm_bulk.txt
